LAMMPS (2 Jun 2022)
##----------------------------------------------------------------------------##
# Add Simulation Info! #
##----------------------------------------------------------------------------##

##----------------------------------------------------------------------------##
clear
##----------------------------------------------------------------------------##

##---------------------------Variable Setup-----------------------------------##
variable timestep equal 0.0025
variable stencil_points equal 3
variable Temp equal 300
variable Volume equal 24^3
variable		PRate	equal	1.0e-1	# Pull rate of the tensile deformation in A/ps
variable		N		equal	1e3		# Data & dump ouptput frequency
variable		NEvery	equal	1						# Use input values every this many timesteps
variable		NRepeat	equal	$N/10					# No. of times to use input values for calculating averages
variable		NRepeat	equal	1000/10
variable		NFreq	equal	1*100
variable		ETens	equal	0.1*time/7.68
variable		EZZ		equal	v_ETens

##----------------------------------------------------------------------------##

##-----------------------Simulation Space Setup-------------------------------##
units          micro
dimension      3
boundary       p p f
atom_style     molecular
##----------------------------------------------------------------------------##

##--------------------Reading Cell Atom Data + Setting Masses -----------------##
read_data Bonding_Test_V4.2.data extra/atom/types 2
Reading data file ...
  orthogonal box = (0 0 0) to (100 100 100)
  reading atoms ...
  930 atoms
  scanning bonds ...
  reading bonds ...
  2184 bonds
Finding 1-2 1-3 1-4 neighbors ...
     9 = max # of 1-2 neighbors
    57 = max # of 1-3 neighbors
   390 = max # of 1-4 neighbors
    39 = max # of special neighbors

mass * 1

neighbor 3.5 bin
write_data alskd;fjakl.data
System init for write_data ...
##----------------------------------------------------------------------------##

##-----------------------Group Setup------------------------------------------##
region Right_Grip block 57 63 EDGE EDGE EDGE EDGE
region Left_Grip block  40 43 EDGE EDGE EDGE EDGE
region Cell_Body block  43 50 EDGE EDGE EDGE EDGE
#region Upper_Grip block -1 1.5 3 EDGE EDGE EDGE
#region Lower_Grip block -1 1 EDGE -3 EDGE EDGE

group Right_Grip region Right_Grip
149 atoms in group Right_Grip
group Left_Grip region Left_Grip
149 atoms in group Left_Grip
#group Cell_Body region Cell_Body
#group Upper_Grip region Upper_Grip
#group Lower_Grip region Lower_Grip
group Cell type 1 1
930 atoms in group Cell
set group Right_Grip type 2
Setting atom values ...
  149 settings made for type
set group Left_Grip type 3
Setting atom values ...
  149 settings made for type
#set group Upper_Grip type 4
#set group Lower_Grip type 5
#group cell union Upper_Grip Lower_Grip Cell_1
##-------------------Pair and Bond Style and Coeff Setup-----------------------##
pair_style	bpm/spring
pair_coeff	 * * 0.0 1.0 1.0
bond_style harmonic
bond_coeff 1 10e-3 0.8
create_bonds many Cell Cell 1 0.0001 1    # Create Bonds here bc coeffs need to be set first
Generated 0 of 3 mixed pair_coeff terms from geometric mixing rule
  update every 1 steps, delay 10 steps, check yes
Added 0 bonds, new total = 2184
Finding 1-2 1-3 1-4 neighbors ...
     9 = max # of 1-2 neighbors
    57 = max # of 1-3 neighbors
   390 = max # of 1-4 neighbors
    39 = max # of special neighbors
dump			output		all		custom	100	dump.e3 id	type x y z vx	vy	vz	fx	fy	fz
min_style cg
minimize 1e-7 1e-7 1000 1000
Generated 0 of 3 mixed pair_coeff terms from geometric mixing rule
  update every 1 steps, delay 0 steps, check yes
Step          Temp          E_pair         E_mol          TotEng         Press
0   0              0              5.4451478      5.4451478     -8.6158493e-06
Loop time of 0.180121 on 1 procs for 1000 steps with 930 atoms

Minimization stats:
  Stopping criterion = max force evaluations
  Energy initial, next-to-last, final =
  Force two-norm initial, final = 0.45844454 0.021963642
  Force max component initial, final = 0.032134979 0.0011498229
  Final line search alpha, max atom move = 1 0.0011498229
  Iterations, force evaluations = 1000 1000

fix mysf1 Right_Grip setforce -0 NULL 0
fix mysf2 Left_Grip  setforce 0 NULL 0
#velocity Right_Grip set 0 NULL 0
velocity Left_Grip set -0.0500 NULL 0
velocity Right_Grip set 0.0500 NULL 0
##-------------------------------------
##----------------------------------------------------------------------------##
##---------------------------------Fixes--------------------------------------##
#fix   2 all lb/viscous
fix   3 all nve
#$fix   4 all lb/momentum 1

compute			Stress	Cell	stress/atom	NULL
compute			BodySt	Cell	reduce	sum	c_Stress[1]
compute			BodyStrain	Cell	reduce	sum	c_Stress[4]
compute         force   all  property/atom fx fy fz
compute 		FX	    all	reduce	sum	c_force[1] #c_force[2] c_force[3]
compute			FY	    all	reduce	sum	c_force[2]
compute			FZ		all reduce	sum	c_force[3]
compute         centerm1 Left_Grip com
#compute         CM1 Left_Grip reduce sum c_centerm1
compute         centerm2 Right_Grip com
#compute         centerm3 Upper_Grip com
#compute         centerm4 Lower_Grip com

#compute         CM2 Right_Grip reduce sum c_centerm2
#compute         potential Cell_Body pe/atom
#compute			pe	Cell_Body	reduce	sum	c_potential[1]

variable		SigZZ	equal	c_BodySt/(13824*10^-9)
variable		SZZ		equal	v_SigZZ
variable		ShearXX	equal	c_BodyStrain/(13824*10^-9)
variable		SXX		equal	v_ShearXX
variable        Fx equal c_FX
variable        Fy equal c_FY
variable        Fz equal c_FZ
variable        leftpos  equal c_centerm1[1]
variable        rightpos equal c_centerm2[1]
variable        diameter  equal "v_leftpos-v_rightpos"
variable        straindummy2      equal "v_diameter-7.68"
variable        strain       equal v_straindummy2/7.68
#variable        uptops      equal c_centerm3[2]
#variable        downlo      equal c_centerm4[2]
#variable        displacement   equal "v_uptops-v_downlo"
#variable        compression     equal "v_displacement-7.3"
#variable        poisson         equal v_compression/7.3

#variable        Pe  equal c_potential
#v_force[2] v_force[3]
##----------------------------------------------------------------------------##
##----------------------------------------------------------------------------##
##--------------------Final Run Settings + Start------------------------------##
timestep    0.0025
thermo      10000
thermo_style custom step etotal  press  v_SZZ v_SXX v_strain v_Fx v_Fy v_Fz
#run_style verlet

#dump_modify output element cell
fix				mNm2		all		ave/time	1	100	100 v_ETens	v_SZZ v_SXX	v_Fx  v_Fy v_Fz v_strain v_ETens v_diameter  file	out.straine3.csv
neigh_modify every 2 delay 10 check yes page 100000
run         10000
Generated 0 of 3 mixed pair_coeff terms from geometric mixing rule
Step         TotEng         Press          v_SZZ          v_SXX         v_strain         v_Fx           v_Fy           v_Fz
1000   0.66984013    -8.9062118e-07  28497.867      38566.071     -2.8536916     -1.1920238e-15 -3.8441222e-17 -5.793736e-16
Loop time of 3.00469 on 1 procs for 10000 steps with 930 atoms

velocity Left_Grip set -0.0500 NULL 0
velocity Right_Grip set 0.0500 NULL 0

run 10000
Generated 0 of 3 mixed pair_coeff terms from geometric mixing rule
Step         TotEng         Press          v_SZZ          v_SXX         v_strain         v_Fx           v_Fy           v_Fz
11000   1.4062164     -1.1895087e-06  105440.9       49933.986     -3.1792124      3.55331e-15   -4.6918849e-17  1.2276421e-15
Loop time of 2.92669 on 1 procs for 10000 steps with 930 atoms

velocity Left_Grip set 0.0500 NULL 0
velocity Right_Grip set -0.0500 NULL 0

run 100000
Generated 0 of 3 mixed pair_coeff terms from geometric mixing rule
Step         TotEng         Press          v_SZZ          v_SXX         v_strain         v_Fx           v_Fy           v_Fz
21000   2.1433747     -8.0799617e-07  106049.21     -4435.4101     -3.5047333      1.2424957e-15  1.1736489e-17 -3.2114068e-16
Averages over the last 6 of 12 rows, steps 80000 to 121000:
TotEng Press v_SZZ v_SXX v_strain v_Fx v_Fy v_Fz
2.51549 -3.75576e-07 52118.1 15199.9 -0.819186 4.94093e-11 -3.04706e-17 -1.75727e-11
Loop time of 56.7303 on 1 procs for 100000 steps with 930 atoms

#velocity Left_Grip set -0.0500 NULL 0
#velocity Right_Grip set 0.0500 NULL 0

#run 10000

#velocity Left_Grip set 0.0500 NULL 0
#velocity Right_Grip set -0.0500 NULL 0

#run 10000

##----------------------------------------------------------------------------##
##----------------------------------------------------------------------------##

##velocity Right_Grip set 0.0500 NULL 0
##velocity Left_Grip set -0.0500 NULL 0

##run         50000
